[TITLE]


[JUNCTIONS]
;ID              	Elev        	Demand      	Pattern         
 1               	11.1000     	10.900000   	                	;
 2               	11.7000     	1.600000    	                	;
 3               	10.4000     	13.500000   	                	;
 4               	11.0000     	5.100000    	                	;
 5               	12.9000     	0.000000    	                	;
 6               	10.4000     	4.900000    	                	;
 7               	11.8000     	11.900000   	                	;
 8               	11.8000     	15.600000   	                	;
 9               	12.2000     	19.799999   	                	;
 10              	11.4000     	10.300000   	                	;
 11              	10.5000     	2.400000    	                	;
 12              	10.5000     	0.800000    	                	;
 14              	10.1000     	4.400000    	                	;
 15              	12.7000     	0.900000    	                	;
 16              	10.1000     	18.900000   	                	;
 17              	11.1000     	10.200000   	                	;
 18              	12.5000     	19.500000   	                	;
 19              	10.2000     	8.500000    	                	;
 20              	12.7000     	9.300000    	                	;
 21              	10.6000     	14.300000   	                	;
 22              	12.1000     	12.300000   	                	;
 23              	12.4000     	18.700001   	                	;
 24              	10.2000     	11.400000   	                	;
 25              	10.3000     	10.300000   	                	;
 26              	12.2000     	4.800000    	                	;
 27              	12.2000     	0.000000    	                	;
 28              	12.1000     	5.800000    	                	;
 29              	12.6000     	1.800000    	                	;
 30              	10.8000     	18.000000   	                	;
 31              	10.5000     	19.600000   	                	;
 32              	11.7000     	19.799999   	                	;
 34              	10.6000     	8.100000    	                	;
 35              	11.1000     	18.900000   	                	;
 36              	11.8000     	19.799999   	                	;
 37              	10.9000     	0.900000    	                	;
 38              	12.2000     	15.700000   	                	;
 39              	11.7000     	7.200000    	                	;
 40              	11.9000     	2.200000    	                	;
 41              	12.5000     	13.800000   	                	;
 42              	12.4000     	9.200000    	                	;
 43              	12.3000     	3.800000    	                	;
 44              	12.1000     	17.900000   	                	;
 45              	10.2000     	19.000000   	                	;
 46              	10.3000     	5.700000    	                	;
 47              	10.3000     	15.800000   	                	;
 48              	11.4000     	19.100000   	                	;
 49              	12.1000     	1.500000    	                	;
 50              	10.1000     	8.800000    	                	;
 51              	12.3000     	15.600000   	                	;
 52              	12.8000     	11.100000   	                	;
 54              	11.7000     	0.200000    	                	;
 55              	11.4000     	3.400000    	                	;
 56              	12.2000     	7.200000    	                	;
 57              	12.7000     	5.500000    	                	;
 58              	12.7000     	12.800000   	                	;
 59              	11.9000     	4.600000    	                	;
 60              	12.3000     	16.200001   	                	;
 65              	12.1000     	8.600000    	                	;
 66              	11.9000     	7.500000    	                	;
 67              	12.8000     	3.300000    	                	;
 68              	11.6000     	6.900000    	                	;
 71              	10.5000     	14.200000   	                	;
 72              	12.0000     	4.400000    	                	;
 73              	11.2000     	1.600000    	                	;
 74              	11.8000     	8.100000    	                	;
 76              	11.6000     	19.799999   	                	;
 77              	11.0000     	12.200000   	                	;
 85              	10.2000     	5.100000    	                	;
 89              	10.4000     	2.100000    	                	;
 110             	12.8000     	9.900000    	                	;
 112             	11.5000     	7.600000    	                	;
 64              	12.0000     	9.200000    	                	;
 123             	10.9000     	18.900000   	                	;
 135             	11.0000     	7.500000    	                	;
 136             	12.0000     	11.200000   	                	;
 137             	10.6000     	0.000000    	                	;
 138             	12.1000     	11.000000   	                	;
 139             	10.3000     	0.300000    	                	;
 140             	10.8000     	6.900000    	                	;
 141             	10.9000     	6.100000    	                	;
 142             	12.3000     	8.800000    	                	;
 143             	12.4000     	0.100000    	                	;
 144             	10.4000     	18.900000   	                	;
 145             	10.6000     	5.500000    	                	;
 146             	12.0000     	2.300000    	                	;
 147             	11.6000     	0.200000    	                	;
 148             	12.6000     	18.500000   	                	;
 149             	11.1000     	18.200001   	                	;
 150             	12.8000     	8.500000    	                	;
 151             	12.4000     	8.800000    	                	;
 152             	10.9000     	2.600000    	                	;
 153             	12.6000     	1.700000    	                	;
 154             	11.3000     	15.700000   	                	;
 155             	11.7000     	3.200000    	                	;
 156             	12.8000     	13.200000   	                	;
 157             	10.8000     	16.900000   	                	;
 158             	11.2000     	15.400000   	                	;
 159             	10.9000     	12.100000   	                	;
 160             	11.1000     	18.900000   	                	;
 161             	10.3000     	17.600000   	                	;
 162             	10.5000     	12.900000   	                	;
 163             	11.9000     	16.799999   	                	;
 164             	11.8000     	9.200000    	                	;
 165             	12.4000     	2.500000    	                	;
 166             	10.0000     	15.500000   	                	;
 167             	12.7000     	3.400000    	                	;
 168             	12.6000     	14.900000   	                	;
 169             	12.3000     	4.100000    	                	;
 170             	10.6000     	11.200000   	                	;
 171             	11.1000     	14.500000   	                	;
 172             	10.5000     	6.000000    	                	;
 173             	11.4000     	11.800000   	                	;
 174             	12.2000     	15.300000   	                	;
 175             	10.0000     	13.900000   	                	;
 176             	10.9000     	2.300000    	                	;
 177             	11.7000     	7.900000    	                	;
 178             	10.3000     	19.600000   	                	;
 179             	12.7000     	8.700000    	                	;
 180             	11.2000     	12.900000   	                	;
 181             	11.6000     	14.900000   	                	;
 182             	10.0000     	3.700000    	                	;
 183             	11.1000     	6.600000    	                	;
 184             	10.6000     	14.900000   	                	;
 185             	10.5000     	19.299999   	                	;
 186             	11.7000     	19.500000   	                	;
 187             	11.5000     	9.700000    	                	;
 188             	10.4000     	1.600000    	                	;
 189             	11.1000     	8.600000    	                	;
 190             	12.2000     	10.500000   	                	;
 191             	12.0000     	8.800000    	                	;
 192             	11.0000     	8.200000    	                	;
 193             	12.1000     	5.500000    	                	;
 194             	10.4000     	13.400000   	                	;
 195             	11.6000     	11.400000   	                	;
 196             	11.0000     	10.100000   	                	;
 197             	12.7000     	11.600000   	                	;
 198             	11.1000     	7.100000    	                	;
 199             	10.7000     	18.600000   	                	;
 200             	12.7000     	6.300000    	                	;
 201             	10.7000     	11.300000   	                	;
 202             	11.7000     	15.500000   	                	;
 203             	10.3000     	18.500000   	                	;
 204             	10.3000     	5.300000    	                	;
 205             	10.5000     	11.200000   	                	;
 206             	12.9000     	0.800000    	                	;
 207             	11.9000     	3.200000    	                	;
 208             	10.8000     	14.500000   	                	;
 209             	11.1000     	11.300000   	                	;
 210             	11.8000     	15.600000   	                	;
 211             	10.2000     	12.100000   	                	;
 212             	11.6000     	15.800000   	                	;
 213             	12.6000     	4.600000    	                	;
 214             	11.0000     	18.200001   	                	;
 215             	10.3000     	8.100000    	                	;
 216             	10.8000     	14.400000   	                	;
 217             	10.0000     	19.600000   	                	;
 218             	11.1000     	2.200000    	                	;
 219             	11.2000     	12.900000   	                	;
 220             	10.5000     	16.100000   	                	;
 221             	11.0000     	13.500000   	                	;
 222             	12.9000     	5.000000    	                	;
 223             	12.4000     	17.299999   	                	;
 224             	11.7000     	6.600000    	                	;
 225             	10.8000     	4.400000    	                	;
 226             	10.3000     	5.900000    	                	;
 227             	12.5000     	9.200000    	                	;
 228             	12.1000     	3.900000    	                	;
 229             	10.2000     	5.300000    	                	;
 230             	12.0000     	2.400000    	                	;
 231             	10.1000     	15.400000   	                	;
 232             	12.6000     	11.000000   	                	;
 233             	11.4000     	14.500000   	                	;
 235             	11.0000     	4.900000    	                	;
 236             	10.6000     	18.600000   	                	;
 237             	12.1000     	11.300000   	                	;
 238             	11.8000     	7.400000    	                	;
 239             	10.9000     	2.200000    	                	;
 240             	11.8000     	16.799999   	                	;
 241             	10.4000     	1.800000    	                	;
 242             	10.1000     	18.700001   	                	;
 243             	12.4000     	10.500000   	                	;
 244             	12.3000     	15.800000   	                	;
 245             	11.9000     	19.100000   	                	;
 246             	11.8000     	0.200000    	                	;
 247             	10.8000     	2.500000    	                	;
 248             	10.0000     	7.700000    	                	;
 249             	10.8000     	1.400000    	                	;
 250             	10.7000     	11.400000   	                	;
 251             	11.7000     	2.400000    	                	;
 252             	10.8000     	13.400000   	                	;
 253             	11.3000     	7.400000    	                	;
 254             	11.8000     	17.200001   	                	;
 255             	11.3000     	15.900000   	                	;
 256             	11.7000     	3.300000    	                	;
 257             	12.1000     	7.000000    	                	;
 258             	10.0000     	8.700000    	                	;
 259             	11.7000     	9.700000    	                	;
 260             	11.3000     	11.800000   	                	;
 265             	10.4000     	17.700001   	                	;

[RESERVOIRS]
;ID              	Head        	Pattern         
 114             	44          	                	;
 13              	47          	                	;
 33              	45          	                	;

[TANKS]
;ID              	Elevation   	InitLevel   	MinLevel    	MaxLevel    	Diameter    	MinVol      	VolCurve

[PIPES]
;ID              	Node1           	Node2           	Length      	Diameter    	Roughness   	MinorLoss   	Status
 1               	2               	1               	773.0000    	500         	130         	0.0000      	Open  	;
 2               	2               	3               	870.0000    	500         	130         	0.0000      	Open  	;
 3               	4               	3               	963.0000    	500         	130         	0.0000      	Open  	;
 4               	1               	4               	968.0000    	500         	130         	0.0000      	Open  	;
 5               	4               	5               	192.0000    	500         	130         	0.0000      	Open  	;
 6               	5               	6               	585.0000    	500         	130         	0.0000      	Open  	;
 7               	7               	6               	502.0000    	500         	130         	0.0000      	Open  	;
 8               	1               	7               	480.0000    	500         	130         	0.0000      	Open  	;
 9               	6               	8               	513.0000    	500         	130         	0.0000      	Open  	;
 10              	8               	9               	527.0000    	500         	130         	0.0000      	Open  	;
 11              	7               	10              	402.0000    	500         	130         	0.0000      	Open  	;
 12              	9               	10              	599.0000    	500         	130         	0.0000      	Open  	;
 13              	10              	12              	927.0000    	500         	130         	0.0000      	Open  	;
 14              	9               	11              	925.0000    	500         	130         	0.0000      	Open  	;
 15              	12              	11              	743.0000    	500         	130         	0.0000      	Open  	;
 16              	11              	14              	224.0000    	500         	130         	0.0000      	Open  	;
 18              	14              	15              	323.0000    	500         	130         	0.0000      	Open  	;
 19              	12              	15              	372.0000    	500         	130         	0.0000      	Open  	;
 20              	15              	16              	561.0000    	500         	130         	0.0000      	Open  	;
 21              	16              	17              	781.0000    	500         	130         	0.0000      	Open  	;
 22              	18              	17              	503.0000    	500         	130         	0.0000      	Open  	;
 23              	15              	18              	532.0000    	500         	130         	0.0000      	Open  	;
 24              	19              	18              	505.0000    	500         	130         	0.0000      	Open  	;
 25              	14              	19              	693.0000    	500         	130         	0.0000      	Open  	;
 26              	20              	19              	325.0000    	500         	130         	0.0000      	Open  	;
 27              	21              	20              	531.0000    	500         	130         	0.0000      	Open  	;
 28              	11              	21              	492.0000    	500         	130         	0.0000      	Open  	;
 29              	22              	21              	242.0000    	500         	130         	0.0000      	Open  	;
 30              	22              	9               	222.0000    	500         	130         	0.0000      	Open  	;
 31              	23              	22              	786.0000    	500         	130         	0.0000      	Open  	;
 32              	8               	23              	564.0000    	500         	130         	0.0000      	Open  	;
 33              	24              	23              	800.0000    	500         	130         	0.0000      	Open  	;
 34              	6               	24              	387.0000    	500         	130         	0.0000      	Open  	;
 35              	25              	89              	360.0000    	500         	130         	0.0000      	Open  	;
 36              	5               	25              	913.0000    	500         	130         	0.0000      	Open  	;
 37              	26              	25              	474.0000    	500         	130         	0.0000      	Open  	;
 39              	27              	85              	870.0000    	500         	130         	0.0000      	Open  	;
 40              	3               	27              	470.0000    	500         	130         	0.0000      	Open  	;
 41              	28              	34              	335.0000    	500         	130         	0.0000      	Open  	;
 42              	29              	28              	333.0000    	500         	130         	0.0000      	Open  	;
 43              	30              	29              	911.0000    	500         	130         	0.0000      	Open  	;
 44              	30              	31              	660.0000    	500         	130         	0.0000      	Open  	;
 45              	31              	32              	996.0000    	500         	130         	0.0000      	Open  	;
 46              	32              	27              	267.0000    	500         	130         	0.0000      	Open  	;
 50              	25              	35              	185.0000    	500         	130         	0.0000      	Open  	;
 51              	34              	27              	950.0000    	500         	130         	0.0000      	Open  	;
 52              	35              	36              	240.0000    	500         	130         	0.0000      	Open  	;
 53              	36              	24              	294.0000    	500         	130         	0.0000      	Open  	;
 54              	36              	37              	995.0000    	500         	130         	0.0000      	Open  	;
 55              	37              	23              	124.0000    	500         	130         	0.0000      	Open  	;
 56              	37              	38              	219.0000    	500         	130         	0.0000      	Open  	;
 57              	38              	21              	425.0000    	500         	130         	0.0000      	Open  	;
 58              	38              	39              	576.0000    	500         	130         	0.0000      	Open  	;
 59              	39              	20              	194.0000    	500         	130         	0.0000      	Open  	;
 60              	40              	39              	258.0000    	500         	130         	0.0000      	Open  	;
 61              	41              	40              	302.0000    	500         	130         	0.0000      	Open  	;
 62              	41              	38              	371.0000    	500         	130         	0.0000      	Open  	;
 63              	42              	41              	966.0000    	500         	130         	0.0000      	Open  	;
 64              	42              	37              	278.0000    	500         	130         	0.0000      	Open  	;
 67              	44              	43              	384.0000    	500         	130         	0.0000      	Open  	;
 69              	45              	44              	218.0000    	500         	130         	0.0000      	Open  	;
 71              	31              	45              	664.0000    	500         	130         	0.0000      	Open  	;
 72              	46              	31              	519.0000    	500         	130         	0.0000      	Open  	;
 73              	46              	47              	752.0000    	500         	130         	0.0000      	Open  	;
 75              	47              	48              	200.0000    	500         	130         	0.0000      	Open  	;
 77              	48              	49              	187.0000    	500         	130         	0.0000      	Open  	;
 78              	49              	43              	560.0000    	500         	130         	0.0000      	Open  	;
 79              	49              	50              	226.0000    	500         	130         	0.0000      	Open  	;
 80              	50              	41              	110.0000    	500         	130         	0.0000      	Open  	;
 81              	50              	51              	357.0000    	500         	130         	0.0000      	Open  	;
 82              	51              	40              	770.0000    	500         	130         	0.0000      	Open  	;
 83              	52              	51              	615.0000    	500         	130         	0.0000      	Open  	;
 84              	54              	52              	676.0000    	500         	130         	0.0000      	Open  	;
 86              	55              	54              	627.0000    	500         	130         	0.0000      	Open  	;
 87              	54              	50              	443.0000    	500         	130         	0.0000      	Open  	;
 89              	56              	55              	358.0000    	500         	130         	0.0000      	Open  	;
 90              	56              	48              	964.0000    	500         	130         	0.0000      	Open  	;
 91              	57              	56              	709.0000    	500         	130         	0.0000      	Open  	;
 93              	58              	57              	782.0000    	500         	130         	0.0000      	Open  	;
 94              	58              	46              	986.0000    	500         	130         	0.0000      	Open  	;
 95              	59              	58              	865.0000    	500         	130         	0.0000      	Open  	;
 96              	60              	30              	887.0000    	500         	130         	0.0000      	Open  	;
 97              	59              	60              	877.0000    	500         	130         	0.0000      	Open  	;
 104             	110             	59              	174.0000    	500         	130         	0.0000      	Open  	;
 105             	52              	65              	925.0000    	500         	130         	0.0000      	Open  	;
 106             	54              	66              	527.0000    	500         	130         	0.0000      	Open  	;
 107             	56              	67              	329.0000    	500         	130         	0.0000      	Open  	;
 108             	57              	68              	528.0000    	500         	130         	0.0000      	Open  	;
 110             	66              	65              	323.0000    	500         	130         	0.0000      	Open  	;
 111             	67              	66              	720.0000    	500         	130         	0.0000      	Open  	;
 112             	68              	67              	702.0000    	500         	130         	0.0000      	Open  	;
 115             	66              	112             	662.0000    	500         	130         	0.0000      	Open  	;
 117             	68              	72              	223.0000    	500         	130         	0.0000      	Open  	;
 118             	74              	73              	396.0000    	500         	130         	0.0000      	Open  	;
 121             	72              	71              	237.0000    	500         	130         	0.0000      	Open  	;
 122             	73              	72              	761.0000    	500         	130         	0.0000      	Open  	;
 129             	76              	74              	395.0000    	500         	130         	0.0000      	Open  	;
 132             	59              	76              	225.0000    	500         	130         	0.0000      	Open  	;
 135             	77              	76              	464.0000    	500         	130         	0.0000      	Open  	;
 136             	110             	77              	260.0000    	500         	130         	0.0000      	Open  	;
 140             	85              	26              	902.0000    	500         	130         	0.0000      	Open  	;
 145             	89              	24              	116.0000    	500         	130         	0.0000      	Open  	;
 182             	112             	71              	626.0000    	500         	130         	0.0000      	Open  	;
 184             	110             	114             	311.0000    	500         	130         	0.0000      	Open  	;
 17              	64              	72              	271.0000    	500         	130         	0.0000      	Open  	;
 189             	123             	20              	211.0000    	500         	130         	0.0000      	Open  	;
 191             	146             	64              	447.0000    	500         	130         	0.0000      	Open  	;
 192             	146             	145             	553.0000    	500         	130         	0.0000      	Open  	;
 193             	145             	71              	920.0000    	500         	130         	0.0000      	Open  	;
 194             	145             	147             	190.0000    	500         	130         	0.0000      	Open  	;
 195             	71              	144             	624.0000    	500         	130         	0.0000      	Open  	;
 197             	148             	135             	263.0000    	500         	130         	0.0000      	Open  	;
 198             	135             	136             	540.0000    	500         	130         	0.0000      	Open  	;
 199             	136             	137             	251.0000    	500         	130         	0.0000      	Open  	;
 200             	137             	138             	762.0000    	500         	130         	0.0000      	Open  	;
 201             	138             	139             	429.0000    	500         	130         	0.0000      	Open  	;
 202             	139             	140             	400.0000    	500         	130         	0.0000      	Open  	;
 203             	140             	141             	713.0000    	500         	130         	0.0000      	Open  	;
 204             	141             	142             	158.0000    	500         	130         	0.0000      	Open  	;
 205             	142             	143             	578.0000    	500         	130         	0.0000      	Open  	;
 206             	148             	149             	365.0000    	500         	130         	0.0000      	Open  	;
 207             	65              	135             	507.0000    	500         	130         	0.0000      	Open  	;
 208             	52              	136             	777.0000    	500         	130         	0.0000      	Open  	;
 209             	51              	137             	400.0000    	500         	130         	0.0000      	Open  	;
 210             	40              	138             	958.0000    	500         	130         	0.0000      	Open  	;
 211             	39              	139             	239.0000    	500         	130         	0.0000      	Open  	;
 212             	19              	141             	603.0000    	500         	130         	0.0000      	Open  	;
 213             	18              	142             	260.0000    	500         	130         	0.0000      	Open  	;
 214             	143             	17              	557.0000    	500         	130         	0.0000      	Open  	;
 215             	149             	150             	624.0000    	500         	130         	0.0000      	Open  	;
 216             	150             	184             	277.0000    	500         	130         	0.0000      	Open  	;
 217             	150             	151             	708.0000    	500         	130         	0.0000      	Open  	;
 218             	151             	152             	513.0000    	500         	130         	0.0000      	Open  	;
 219             	152             	153             	587.0000    	500         	130         	0.0000      	Open  	;
 220             	153             	154             	101.0000    	500         	130         	0.0000      	Open  	;
 221             	154             	155             	450.0000    	500         	130         	0.0000      	Open  	;
 222             	155             	156             	160.0000    	500         	130         	0.0000      	Open  	;
 223             	156             	157             	928.0000    	500         	130         	0.0000      	Open  	;
 224             	157             	158             	493.0000    	500         	130         	0.0000      	Open  	;
 225             	158             	159             	484.0000    	500         	130         	0.0000      	Open  	;
 226             	159             	160             	605.0000    	500         	130         	0.0000      	Open  	;
 227             	160             	173             	340.0000    	500         	130         	0.0000      	Open  	;
 228             	135             	151             	611.0000    	500         	130         	0.0000      	Open  	;
 229             	136             	152             	904.0000    	500         	130         	0.0000      	Open  	;
 230             	137             	153             	335.0000    	500         	130         	0.0000      	Open  	;
 231             	138             	154             	956.0000    	500         	130         	0.0000      	Open  	;